*********************************************************************
** Abaqus/fromNastran Abaqus 3DEXPERIENCE R2019x
**
** reading bulk data from: C:\peter_abaqus\Summer-Research-Project\meep\gen_geo\gmsh_out\two_physical_group.bdf
**  creating Abaqus input: C:\peter_abaqus\Summer-Research-Project\meep\gen_geo\gmsh_out\two_physical_group.inp
** writing diagnostics to: C:\peter_abaqus\Summer-Research-Project\meep\gen_geo\gmsh_out\two_physical_group.log
**
**  environment variables: fromnastran_wtmass_fixup <not present>
**                       : fromnastran_distribution <not present>
**                       : fromnastran_pbar_zero_reset <not present>
**                       : fromnastran_loadcases <not present>
**                       : fromnastran_surface_based_coupling <not present>
**                       : fromnastran_cquad4 <not present>
**                       : fromnastran_chexa <not present>
**                       : fromnastran_ctetra <not present>
**                       : fromnastran_cbar <not present>
**                       : fromnastran_beam_offset_coupling <not present>
**                       : fromnastran_beam_orientation_vector <not present>
**                       : fromnastran_shell_general_section <not present>
**                       : fromnastran_eigensolver <not present>
**                       : fromnastran_plotel <not present>
**                       : fromnastran_cdh_weld <not present>
**                       : fromnastran_spoint_dof <not present>
**
** command line arguments: wtmass_fixup=ON
**                       : distribution=preservePID
**                       : pbar_zero_reset=1e-20
**                       : loadcases=ON
**                       : surface_based_coupling=ON
**                       : cquad4=S4R
**                       : chexa=C3D8I
**                       : ctetra=C3D10M
**                       : cbar=B31
**                       : beam_offset_coupling=ON
**                       : beam_orientation_vector=ON
**                       : shell_general_section=OFF
**                       : plotel <not present>
**                       : cdh_weld <not present>
**                       : eigensolver <not present>
**                       : spoint_dof <not present, using default=9>
**
** --------------------------------
** Nastran Bulk Data processed:
**      keyword   number
** ------------   ------
**         CBAR       32
**       CTRIA3       88
**      ENDDATA        1
**         GRID       62
**
** environment_variable / command_line_argument summary:
** PARAM,WTMASS will be used to adjust structural mass/density
** *DISTRIBUTION will be used for shell offsets, orientations, and thicknesses
**  shell elements will be grouped by PSHELL ID
** Zero PBAR/PBEAM cross sectional parameters will be reset to 1e-20
** Rigid links will be modeled using surface-based *COUPLING constraints
** Beam orientations will be modeled using vectors on beam sections
** Beam offsets will be modeled using rigid couplings and extra nodes
** PSHELL/PCOMP will default to *SHELL SECTION
** PLOTELs will not be translated
** "CDH welds" (isolated CHEXAs with 8 RBE3s) will not be translated to
**  rigid fasteners
** CWELDs will be translated to compliant fasteners
** CQUAD4 elements will be translated to S4R
** SPOINT DOF 0 will be reset to 9 in DMIG, MPC, CELAS2, and CMASS2 data
**
** ---------------------------------------------------
** ---- *NODE ----------------------------------------
** ---------------------------------------------------
**
** following nodes were defined in the global coordinate system
**
*SYSTEM
**
*NODE, SYSTEM=R
       1,          0.,          0.,          0.
       2,          1.,          0.,          0.
       3,          1.,          1.,          0.
       4,          0.,          1.,          0.
       5,          0.,          0.,          0.
       6,         -1.,          0.,          0.
       7,         -1.,         -1.,          0.
       8,          0.,         -1.,          0.
       9,        0.25,          0.,          0.
      10,         0.5,          0.,          0.
      11,        0.75,          0.,          0.
      12,          1.,        0.25,          0.
      13,          1.,         0.5,          0.
      14,          1.,        0.75,          0.
      15,        0.75,          1.,          0.
      16,         0.5,          1.,          0.
      17,        0.25,          1.,          0.
      18,          0.,        0.75,          0.
      19,          0.,         0.5,          0.
      20,          0.,        0.25,          0.
** ... 42 like lines cut
**
*SECTION CONTROLS, NAME=REDUCED_INTEGRATION_FROMNASTRAN
**
** ---------------------------------------------------
** ------ SHELL elements (missing PSHELL or MID) -----
** ---------------------------------------------------
**
** DUMMY MATERIAL AND SECTION -=>
*MATERIAL, NAME=MATERIAL_PSHELL_0
*ELASTIC
1., 0.
**
*SHELL SECTION, ELSET=PSHELL_0, MATERIAL=MATERIAL_PSHELL_0
1.,
**
*ELEMENT, TYPE=S3R, ELSET=PSHELL_0
**
41, 37, 39, 33
42, 33, 38, 37
43, 37, 38, 36
44, 35, 40, 37
45, 13, 41, 39
46, 40, 46, 37
47, 39, 42, 13
48, 16, 33, 15
49, 19, 36, 18
50, 20, 35, 19
51, 35, 36, 19
52, 35, 37, 36
53, 11, 34, 10
54, 14, 41, 13
55, 42, 46, 34
56, 17, 38, 16
57, 10, 40, 9
58, 16, 38, 33
59, 34, 40, 10
60, 37, 46, 39
** ... 68 like lines cut
**
** elset ALL_MASSIVE_ELEMENTS contains all 88 elements that can have mass
*ELSET, ELSET=ALL_MASSIVE_ELEMENTS
PSHELL_0,
*STEP
WARNING: did not find "SOL=" in Nastran file
*STATIC
*END STEP
