*Heading
** Job name: v500 Model name: mesh_500
** Generated by: Abaqus/CAE 2019
*Preprint, echo=NO, model=NO, history=NO, contact=NO
**
** PARTS
**
*Part, name=PART-1
*Node
      1,     0.301532,  0.236953005, -0.156450003
      2,  0.251515001,  0.341688991, -0.339920014
      3,  0.240283996,  0.341084987, -0.328460008
      4,  0.230495006,  0.272760987, -0.153730005
      5,  0.238291994,  0.349923998, -0.217759997
      6,  0.231401995,  0.283154994, -0.156499997
      7,  0.279601991,  0.283188999, -0.338539988
      8,  0.309790999,  0.354862988, -0.277410001
      9,  0.305519998,   0.35620901, -0.253919989
     10,  0.328866988,  0.283827007,  -0.29034999
     11,  0.316994011,  0.241720006,      -0.1602
     12,  0.316742986,  0.242971003, -0.160479993
     13,  0.321319997,  0.232131004, -0.172360003
     14,  0.340898007,  0.206154004, -0.252020001
     15,  0.293909013,  0.221865997, -0.167549998
     16,  0.289012998,  0.166396007, -0.289440006
     17,  0.223603994,  0.167771995,     -0.21875
     18,  0.223545998,  0.165478006,     -0.22394
     19, 0.0838930011,     -0.22383, -0.308120012
     20, -0.0582999997, -0.279029995, -0.364179999
** ... 14694 like lines cut
*Element, type=C3D4T
51017,     4,    17,  9664,    15
51018,  9661,  9665,  9662,  9663
51019,  9667,  9666,  9664,  9661
51020,  9661,  9666,  9173,    14
51021,     8,  9662,     2,  9663
51022,  9665,  9173,  9662,  9663
51023,     9,    12,     5,  9661
51024,  9173,  9665,  9661,  9663
51025,    10,  9173,  9661,  9663
51026,  9662,     3,  9173,  9665
51027,  9173,  9664,  9666,  9661
51028,    16,  9173,  9666,    14
51029,  9664,    15,  9667,  9661
51030,  9664,    18,  9173,  9666
51031,  9661,  9667,  9666,    14
51032,    10,  9661,  9173,    14
51033,  9661,    13,  9667,    14
51034,  9662,  9173,     3,  9663
51035,  9665,  9662,     3,     5
51036,    16,    10,  9173,    14
** ... 30597 like lines cut
*Elset, elset=PSOLID_1, generate
 51017,  51065,      1
*Elset, elset=PSOLID_2, generate
 51066,  51127,      1
*Elset, elset=PSOLID_3, generate
 51128,  51232,      1
*Elset, elset=PSOLID_4, generate
 51233,  51299,      1
*Elset, elset=PSOLID_5, generate
 51300,  51320,      1
*Elset, elset=PSOLID_6, generate
 51321,  51396,      1
*Elset, elset=PSOLID_7, generate
 51397,  51452,      1
*Elset, elset=PSOLID_8, generate
 51453,  51501,      1
*Elset, elset=PSOLID_9, generate
 51502,  51562,      1
*Elset, elset=PSOLID_10, generate
 51563,  51592,      1
*Elset, elset=PSOLID_11, generate
 51593,  51667,      1
*Elset, elset=PSOLID_12, generate
 51668,  51714,      1
*Elset, elset=PSOLID_13, generate
 51715,  51753,      1
*Elset, elset=PSOLID_14, generate
 51754,  51853,      1
*Elset, elset=PSOLID_15, generate
 51854,  51883,      1
*Elset, elset=PSOLID_16, generate
 51884,  51939,      1
*Elset, elset=PSOLID_17, generate
 51940,  51985,      1
*Elset, elset=PSOLID_18, generate
 51986,  52007,      1
*Elset, elset=PSOLID_19, generate
 52008,  52118,      1
*Elset, elset=PSOLID_20, generate
 52119,  52213,      1
** ... 780 like lines cut
** Section: quartz
*Solid Section, elset=PSOLID_1, material=feldspar
*Solid Section, elset=PSOLID_2, material=quartz
*Solid Section, elset=PSOLID_3, material=feldspar
*Solid Section, elset=PSOLID_4, material=quartz
*Solid Section, elset=PSOLID_5, material=quartz
*Solid Section, elset=PSOLID_6, material=feldspar
*Solid Section, elset=PSOLID_7, material=feldspar
*Solid Section, elset=PSOLID_8, material=quartz
*Solid Section, elset=PSOLID_9, material=quartz
*Solid Section, elset=PSOLID_10, material=quartz
*Solid Section, elset=PSOLID_11, material=quartz
*Solid Section, elset=PSOLID_12, material=feldspar
*Solid Section, elset=PSOLID_13, material=quartz
*Solid Section, elset=PSOLID_14, material=quartz
*Solid Section, elset=PSOLID_15, material=quartz
*Solid Section, elset=PSOLID_16, material=quartz
*Solid Section, elset=PSOLID_17, material=quartz
*Solid Section, elset=PSOLID_18, material=quartz
*Solid Section, elset=PSOLID_19, material=feldspar
*Solid Section, elset=PSOLID_20, material=feldspar
*Solid Section, elset=PSOLID_21, material=feldspar
*Solid Section, elset=PSOLID_22, material=quartz
*Solid Section, elset=PSOLID_23, material=feldspar
*Solid Section, elset=PSOLID_24, material=quartz
*Solid Section, elset=PSOLID_25, material=quartz
*Solid Section, elset=PSOLID_26, material=quartz
*Solid Section, elset=PSOLID_27, material=quartz
*Solid Section, elset=PSOLID_28, material=feldspar
*Solid Section, elset=PSOLID_29, material=quartz
*Solid Section, elset=PSOLID_30, material=feldspar
*Solid Section, elset=PSOLID_31, material=quartz
*Solid Section, elset=PSOLID_32, material=quartz
*Solid Section, elset=PSOLID_33, material=feldspar
*Solid Section, elset=PSOLID_34, material=quartz
*Solid Section, elset=PSOLID_35, material=feldspar
*Solid Section, elset=PSOLID_36, material=feldspar
*Solid Section, elset=PSOLID_37, material=quartz
*Solid Section, elset=PSOLID_38, material=quartz
*Solid Section, elset=PSOLID_39, material=quartz
*Solid Section, elset=PSOLID_40, material=feldspar
*Solid Section, elset=PSOLID_41, material=quartz
*Solid Section, elset=PSOLID_42, material=feldspar
*Solid Section, elset=PSOLID_43, material=feldspar
*Solid Section, elset=PSOLID_44, material=quartz
*Solid Section, elset=PSOLID_45, material=feldspar
*Solid Section, elset=PSOLID_46, material=quartz
*Solid Section, elset=PSOLID_47, material=feldspar
*Solid Section, elset=PSOLID_48, material=quartz
*Solid Section, elset=PSOLID_49, material=feldspar
*Solid Section, elset=PSOLID_50, material=quartz
*Solid Section, elset=PSOLID_51, material=feldspar
*Solid Section, elset=PSOLID_52, material=feldspar
*Solid Section, elset=PSOLID_53, material=feldspar
*Solid Section, elset=PSOLID_54, material=quartz
*Solid Section, elset=PSOLID_55, material=feldspar
*Solid Section, elset=PSOLID_56, material=quartz
*Solid Section, elset=PSOLID_57, material=feldspar
*Solid Section, elset=PSOLID_58, material=feldspar
*Solid Section, elset=PSOLID_59, material=quartz
*Solid Section, elset=PSOLID_60, material=feldspar
*Solid Section, elset=PSOLID_61, material=quartz
*Solid Section, elset=PSOLID_62, material=feldspar
*Solid Section, elset=PSOLID_63, material=feldspar
*Solid Section, elset=PSOLID_64, material=feldspar
*Solid Section, elset=PSOLID_65, material=quartz
*Solid Section, elset=PSOLID_66, material=quartz
*Solid Section, elset=PSOLID_67, material=quartz
*Solid Section, elset=PSOLID_68, material=feldspar
*Solid Section, elset=PSOLID_69, material=quartz
*Solid Section, elset=PSOLID_70, material=feldspar
*Solid Section, elset=PSOLID_71, material=quartz
*Solid Section, elset=PSOLID_72, material=quartz
*Solid Section, elset=PSOLID_73, material=quartz
*Solid Section, elset=PSOLID_74, material=feldspar
*Solid Section, elset=PSOLID_75, material=feldspar
*Solid Section, elset=PSOLID_76, material=quartz
*Solid Section, elset=PSOLID_77, material=quartz
*Solid Section, elset=PSOLID_78, material=quartz
*Solid Section, elset=PSOLID_79, material=feldspar
*Solid Section, elset=PSOLID_80, material=feldspar
*Solid Section, elset=PSOLID_81, material=feldspar
*Solid Section, elset=PSOLID_82, material=feldspar
*Solid Section, elset=PSOLID_83, material=feldspar
*Solid Section, elset=PSOLID_84, material=quartz
*Solid Section, elset=PSOLID_85, material=feldspar
*Solid Section, elset=PSOLID_86, material=feldspar
*Solid Section, elset=PSOLID_87, material=feldspar
*Solid Section, elset=PSOLID_88, material=quartz
*Solid Section, elset=PSOLID_89, material=feldspar
*Solid Section, elset=PSOLID_90, material=quartz
*Solid Section, elset=PSOLID_91, material=quartz
*Solid Section, elset=PSOLID_92, material=feldspar
*Solid Section, elset=PSOLID_93, material=quartz
*Solid Section, elset=PSOLID_94, material=quartz
*Solid Section, elset=PSOLID_95, material=quartz
*Solid Section, elset=PSOLID_96, material=feldspar
*Solid Section, elset=PSOLID_97, material=quartz
*Solid Section, elset=PSOLID_98, material=feldspar
*Solid Section, elset=PSOLID_99, material=feldspar
*Solid Section, elset=PSOLID_100, material=feldspar
*Solid Section, elset=PSOLID_101, material=feldspar
*Solid Section, elset=PSOLID_102, material=quartz
*Solid Section, elset=PSOLID_103, material=feldspar
*Solid Section, elset=PSOLID_104, material=feldspar
*Solid Section, elset=PSOLID_105, material=quartz
*Solid Section, elset=PSOLID_106, material=feldspar
*Solid Section, elset=PSOLID_107, material=feldspar
*Solid Section, elset=PSOLID_108, material=feldspar
*Solid Section, elset=PSOLID_109, material=feldspar
*Solid Section, elset=PSOLID_110, material=quartz
*Solid Section, elset=PSOLID_111, material=quartz
*Solid Section, elset=PSOLID_112, material=feldspar
*Solid Section, elset=PSOLID_113, material=quartz
*Solid Section, elset=PSOLID_114, material=feldspar
*Solid Section, elset=PSOLID_115, material=feldspar
*Solid Section, elset=PSOLID_116, material=quartz
*Solid Section, elset=PSOLID_117, material=feldspar
*Solid Section, elset=PSOLID_118, material=feldspar
*Solid Section, elset=PSOLID_119, material=feldspar
*Solid Section, elset=PSOLID_120, material=feldspar
*Solid Section, elset=PSOLID_121, material=feldspar
*Solid Section, elset=PSOLID_122, material=quartz
*Solid Section, elset=PSOLID_123, material=feldspar
*Solid Section, elset=PSOLID_124, material=feldspar
*Solid Section, elset=PSOLID_125, material=quartz
*Solid Section, elset=PSOLID_126, material=feldspar
*Solid Section, elset=PSOLID_127, material=feldspar
*Solid Section, elset=PSOLID_128, material=feldspar
*Solid Section, elset=PSOLID_129, material=feldspar
*Solid Section, elset=PSOLID_130, material=feldspar
*Solid Section, elset=PSOLID_131, material=quartz
*Solid Section, elset=PSOLID_132, material=quartz
*Solid Section, elset=PSOLID_133, material=quartz
*Solid Section, elset=PSOLID_134, material=feldspar
*Solid Section, elset=PSOLID_135, material=quartz
*Solid Section, elset=PSOLID_136, material=quartz
*Solid Section, elset=PSOLID_137, material=feldspar
*Solid Section, elset=PSOLID_138, material=quartz
*Solid Section, elset=PSOLID_139, material=quartz
*Solid Section, elset=PSOLID_140, material=feldspar
*Solid Section, elset=PSOLID_141, material=quartz
*Solid Section, elset=PSOLID_142, material=quartz
*Solid Section, elset=PSOLID_143, material=feldspar
*Solid Section, elset=PSOLID_144, material=feldspar
*Solid Section, elset=PSOLID_145, material=quartz
*Solid Section, elset=PSOLID_146, material=feldspar
*Solid Section, elset=PSOLID_147, material=feldspar
*Solid Section, elset=PSOLID_148, material=quartz
*Solid Section, elset=PSOLID_149, material=feldspar
*Solid Section, elset=PSOLID_150, material=feldspar
*Solid Section, elset=PSOLID_151, material=quartz
*Solid Section, elset=PSOLID_152, material=feldspar
*Solid Section, elset=PSOLID_153, material=feldspar
*Solid Section, elset=PSOLID_154, material=feldspar
*Solid Section, elset=PSOLID_155, material=quartz
*Solid Section, elset=PSOLID_156, material=feldspar
*Solid Section, elset=PSOLID_157, material=feldspar
*Solid Section, elset=PSOLID_158, material=quartz
*Solid Section, elset=PSOLID_159, material=quartz
*Solid Section, elset=PSOLID_160, material=quartz
*Solid Section, elset=PSOLID_161, material=quartz
*Solid Section, elset=PSOLID_162, material=feldspar
*Solid Section, elset=PSOLID_163, material=feldspar
*Solid Section, elset=PSOLID_164, material=quartz
*Solid Section, elset=PSOLID_165, material=quartz
*Solid Section, elset=PSOLID_166, material=feldspar
*Solid Section, elset=PSOLID_167, material=quartz
*Solid Section, elset=PSOLID_168, material=quartz
*Solid Section, elset=PSOLID_169, material=feldspar
*Solid Section, elset=PSOLID_170, material=feldspar
*Solid Section, elset=PSOLID_171, material=quartz
*Solid Section, elset=PSOLID_172, material=quartz
*Solid Section, elset=PSOLID_173, material=feldspar
*Solid Section, elset=PSOLID_174, material=quartz
*Solid Section, elset=PSOLID_175, material=feldspar
*Solid Section, elset=PSOLID_176, material=quartz
*Solid Section, elset=PSOLID_177, material=feldspar
*Solid Section, elset=PSOLID_178, material=feldspar
*Solid Section, elset=PSOLID_179, material=feldspar
*Solid Section, elset=PSOLID_180, material=quartz
*Solid Section, elset=PSOLID_181, material=quartz
*Solid Section, elset=PSOLID_182, material=feldspar
*Solid Section, elset=PSOLID_183, material=feldspar
*Solid Section, elset=PSOLID_184, material=quartz
*Solid Section, elset=PSOLID_185, material=quartz
*Solid Section, elset=PSOLID_186, material=feldspar
*Solid Section, elset=PSOLID_187, material=quartz
*Solid Section, elset=PSOLID_188, material=quartz
*Solid Section, elset=PSOLID_189, material=quartz
*Solid Section, elset=PSOLID_190, material=quartz
*Solid Section, elset=PSOLID_191, material=feldspar
*Solid Section, elset=PSOLID_192, material=feldspar
*Solid Section, elset=PSOLID_193, material=feldspar
*Solid Section, elset=PSOLID_194, material=quartz
*Solid Section, elset=PSOLID_195, material=quartz
*Solid Section, elset=PSOLID_196, material=quartz
*Solid Section, elset=PSOLID_197, material=feldspar
*Solid Section, elset=PSOLID_198, material=feldspar
*Solid Section, elset=PSOLID_199, material=quartz
*Solid Section, elset=PSOLID_200, material=quartz
*Solid Section, elset=PSOLID_201, material=quartz
*Solid Section, elset=PSOLID_202, material=feldspar
*Solid Section, elset=PSOLID_203, material=quartz
*Solid Section, elset=PSOLID_204, material=feldspar
*Solid Section, elset=PSOLID_205, material=quartz
*Solid Section, elset=PSOLID_206, material=quartz
*Solid Section, elset=PSOLID_207, material=quartz
*Solid Section, elset=PSOLID_208, material=quartz
*Solid Section, elset=PSOLID_209, material=quartz
*Solid Section, elset=PSOLID_210, material=quartz
*Solid Section, elset=PSOLID_211, material=quartz
*Solid Section, elset=PSOLID_212, material=quartz
*Solid Section, elset=PSOLID_213, material=quartz
*Solid Section, elset=PSOLID_214, material=quartz
*Solid Section, elset=PSOLID_215, material=quartz
*Solid Section, elset=PSOLID_216, material=feldspar
*Solid Section, elset=PSOLID_217, material=feldspar
*Solid Section, elset=PSOLID_218, material=quartz
*Solid Section, elset=PSOLID_219, material=feldspar
*Solid Section, elset=PSOLID_220, material=quartz
*Solid Section, elset=PSOLID_221, material=quartz
*Solid Section, elset=PSOLID_222, material=feldspar
*Solid Section, elset=PSOLID_223, material=quartz
*Solid Section, elset=PSOLID_224, material=feldspar
*Solid Section, elset=PSOLID_225, material=quartz
*Solid Section, elset=PSOLID_226, material=feldspar
*Solid Section, elset=PSOLID_227, material=feldspar
*Solid Section, elset=PSOLID_228, material=quartz
*Solid Section, elset=PSOLID_229, material=feldspar
*Solid Section, elset=PSOLID_230, material=quartz
*Solid Section, elset=PSOLID_231, material=feldspar
*Solid Section, elset=PSOLID_232, material=quartz
*Solid Section, elset=PSOLID_233, material=feldspar
*Solid Section, elset=PSOLID_234, material=quartz
*Solid Section, elset=PSOLID_235, material=quartz
*Solid Section, elset=PSOLID_236, material=feldspar
*Solid Section, elset=PSOLID_237, material=feldspar
*Solid Section, elset=PSOLID_238, material=feldspar
*Solid Section, elset=PSOLID_239, material=feldspar
*Solid Section, elset=PSOLID_240, material=feldspar
*Solid Section, elset=PSOLID_241, material=quartz
*Solid Section, elset=PSOLID_242, material=quartz
*Solid Section, elset=PSOLID_243, material=quartz
*Solid Section, elset=PSOLID_244, material=feldspar
*Solid Section, elset=PSOLID_245, material=quartz
*Solid Section, elset=PSOLID_246, material=feldspar
*Solid Section, elset=PSOLID_247, material=quartz
*Solid Section, elset=PSOLID_248, material=feldspar
*Solid Section, elset=PSOLID_249, material=feldspar
*Solid Section, elset=PSOLID_250, material=feldspar
*Solid Section, elset=PSOLID_251, material=quartz
*Solid Section, elset=PSOLID_252, material=quartz
*Solid Section, elset=PSOLID_253, material=quartz
*Solid Section, elset=PSOLID_254, material=feldspar
*Solid Section, elset=PSOLID_255, material=quartz
*Solid Section, elset=PSOLID_256, material=feldspar
*Solid Section, elset=PSOLID_257, material=quartz
*Solid Section, elset=PSOLID_258, material=feldspar
*Solid Section, elset=PSOLID_259, material=feldspar
*Solid Section, elset=PSOLID_260, material=feldspar
*Solid Section, elset=PSOLID_261, material=quartz
*Solid Section, elset=PSOLID_262, material=quartz
*Solid Section, elset=PSOLID_263, material=feldspar
*Solid Section, elset=PSOLID_264, material=feldspar
*Solid Section, elset=PSOLID_265, material=feldspar
*Solid Section, elset=PSOLID_266, material=feldspar
*Solid Section, elset=PSOLID_267, material=quartz
*Solid Section, elset=PSOLID_268, material=quartz
*Solid Section, elset=PSOLID_269, material=quartz
*Solid Section, elset=PSOLID_270, material=feldspar
*Solid Section, elset=PSOLID_271, material=feldspar
*Solid Section, elset=PSOLID_272, material=quartz
*Solid Section, elset=PSOLID_273, material=feldspar
*Solid Section, elset=PSOLID_274, material=feldspar
*Solid Section, elset=PSOLID_275, material=feldspar
*Solid Section, elset=PSOLID_276, material=quartz
*Solid Section, elset=PSOLID_277, material=feldspar
*Solid Section, elset=PSOLID_278, material=feldspar
*Solid Section, elset=PSOLID_279, material=quartz
*Solid Section, elset=PSOLID_280, material=feldspar
*Solid Section, elset=PSOLID_281, material=feldspar
*Solid Section, elset=PSOLID_282, material=quartz
*Solid Section, elset=PSOLID_283, material=quartz
*Solid Section, elset=PSOLID_284, material=quartz
*Solid Section, elset=PSOLID_285, material=quartz
*Solid Section, elset=PSOLID_286, material=quartz
*Solid Section, elset=PSOLID_287, material=quartz
*Solid Section, elset=PSOLID_288, material=quartz
*Solid Section, elset=PSOLID_289, material=feldspar
*Solid Section, elset=PSOLID_290, material=quartz
*Solid Section, elset=PSOLID_291, material=feldspar
*Solid Section, elset=PSOLID_292, material=feldspar
*Solid Section, elset=PSOLID_293, material=feldspar
*Solid Section, elset=PSOLID_294, material=feldspar
*Solid Section, elset=PSOLID_295, material=feldspar
*Solid Section, elset=PSOLID_296, material=feldspar
*Solid Section, elset=PSOLID_297, material=quartz
*Solid Section, elset=PSOLID_298, material=feldspar
*Solid Section, elset=PSOLID_299, material=quartz
*Solid Section, elset=PSOLID_300, material=feldspar
*Solid Section, elset=PSOLID_301, material=quartz
*Solid Section, elset=PSOLID_302, material=quartz
*Solid Section, elset=PSOLID_303, material=feldspar
*Solid Section, elset=PSOLID_304, material=feldspar
*Solid Section, elset=PSOLID_305, material=quartz
*Solid Section, elset=PSOLID_306, material=feldspar
*Solid Section, elset=PSOLID_307, material=feldspar
*Solid Section, elset=PSOLID_308, material=feldspar
*Solid Section, elset=PSOLID_309, material=feldspar
*Solid Section, elset=PSOLID_310, material=quartz
*Solid Section, elset=PSOLID_311, material=feldspar
*Solid Section, elset=PSOLID_312, material=quartz
*Solid Section, elset=PSOLID_313, material=feldspar
*Solid Section, elset=PSOLID_314, material=feldspar
*Solid Section, elset=PSOLID_315, material=feldspar
*Solid Section, elset=PSOLID_316, material=quartz
*Solid Section, elset=PSOLID_317, material=feldspar
*Solid Section, elset=PSOLID_318, material=feldspar
*Solid Section, elset=PSOLID_319, material=feldspar
*Solid Section, elset=PSOLID_320, material=feldspar
*Solid Section, elset=PSOLID_321, material=quartz
*Solid Section, elset=PSOLID_322, material=quartz
*Solid Section, elset=PSOLID_323, material=feldspar
*Solid Section, elset=PSOLID_324, material=quartz
*Solid Section, elset=PSOLID_325, material=quartz
*Solid Section, elset=PSOLID_326, material=quartz
*Solid Section, elset=PSOLID_327, material=quartz
*Solid Section, elset=PSOLID_328, material=feldspar
*Solid Section, elset=PSOLID_329, material=feldspar
*Solid Section, elset=PSOLID_330, material=quartz
*Solid Section, elset=PSOLID_331, material=feldspar
*Solid Section, elset=PSOLID_332, material=feldspar
*Solid Section, elset=PSOLID_333, material=quartz
*Solid Section, elset=PSOLID_334, material=quartz
*Solid Section, elset=PSOLID_335, material=quartz
*Solid Section, elset=PSOLID_336, material=feldspar
*Solid Section, elset=PSOLID_337, material=quartz
*Solid Section, elset=PSOLID_338, material=quartz
*Solid Section, elset=PSOLID_339, material=quartz
*Solid Section, elset=PSOLID_340, material=quartz
*Solid Section, elset=PSOLID_341, material=quartz
*Solid Section, elset=PSOLID_342, material=feldspar
*Solid Section, elset=PSOLID_343, material=quartz
*Solid Section, elset=PSOLID_344, material=quartz
*Solid Section, elset=PSOLID_345, material=quartz
*Solid Section, elset=PSOLID_346, material=feldspar
*Solid Section, elset=PSOLID_347, material=feldspar
*Solid Section, elset=PSOLID_348, material=quartz
*Solid Section, elset=PSOLID_349, material=feldspar
*Solid Section, elset=PSOLID_350, material=quartz
*Solid Section, elset=PSOLID_351, material=quartz
*Solid Section, elset=PSOLID_352, material=quartz
*Solid Section, elset=PSOLID_353, material=quartz
*Solid Section, elset=PSOLID_354, material=feldspar
*Solid Section, elset=PSOLID_355, material=quartz
*Solid Section, elset=PSOLID_356, material=quartz
*Solid Section, elset=PSOLID_357, material=quartz
*Solid Section, elset=PSOLID_358, material=quartz
*Solid Section, elset=PSOLID_359, material=feldspar
*Solid Section, elset=PSOLID_360, material=quartz
*Solid Section, elset=PSOLID_361, material=feldspar
*Solid Section, elset=PSOLID_362, material=quartz
*Solid Section, elset=PSOLID_363, material=feldspar
*Solid Section, elset=PSOLID_364, material=quartz
*Solid Section, elset=PSOLID_365, material=feldspar
*Solid Section, elset=PSOLID_366, material=quartz
*Solid Section, elset=PSOLID_367, material=feldspar
*Solid Section, elset=PSOLID_368, material=feldspar
*Solid Section, elset=PSOLID_369, material=quartz
*Solid Section, elset=PSOLID_370, material=quartz
*Solid Section, elset=PSOLID_371, material=quartz
*Solid Section, elset=PSOLID_372, material=feldspar
*Solid Section, elset=PSOLID_373, material=feldspar
*Solid Section, elset=PSOLID_374, material=feldspar
*Solid Section, elset=PSOLID_375, material=quartz
*Solid Section, elset=PSOLID_376, material=quartz
*Solid Section, elset=PSOLID_377, material=feldspar
*Solid Section, elset=PSOLID_378, material=quartz
*Solid Section, elset=PSOLID_379, material=feldspar
*Solid Section, elset=PSOLID_380, material=quartz
*Solid Section, elset=PSOLID_381, material=feldspar
*Solid Section, elset=PSOLID_382, material=feldspar
*Solid Section, elset=PSOLID_383, material=quartz
*Solid Section, elset=PSOLID_384, material=quartz
*Solid Section, elset=PSOLID_385, material=quartz
*Solid Section, elset=PSOLID_386, material=feldspar
*Solid Section, elset=PSOLID_387, material=quartz
*Solid Section, elset=PSOLID_388, material=quartz
*Solid Section, elset=PSOLID_389, material=quartz
*Solid Section, elset=PSOLID_390, material=quartz
*Solid Section, elset=PSOLID_391, material=quartz
*Solid Section, elset=PSOLID_392, material=quartz
*Solid Section, elset=PSOLID_393, material=quartz
*Solid Section, elset=PSOLID_394, material=quartz
*Solid Section, elset=PSOLID_395, material=quartz
*Solid Section, elset=PSOLID_396, material=quartz
*Solid Section, elset=PSOLID_397, material=quartz
*Solid Section, elset=PSOLID_398, material=quartz
*Solid Section, elset=PSOLID_399, material=quartz
*Solid Section, elset=PSOLID_400, material=feldspar
*Solid Section, elset=PSOLID_401, material=quartz
*Solid Section, elset=PSOLID_402, material=feldspar
*Solid Section, elset=PSOLID_403, material=feldspar
*Solid Section, elset=PSOLID_404, material=quartz
*Solid Section, elset=PSOLID_405, material=quartz
*Solid Section, elset=PSOLID_406, material=feldspar
*Solid Section, elset=PSOLID_407, material=feldspar
*Solid Section, elset=PSOLID_408, material=feldspar
*Solid Section, elset=PSOLID_409, material=feldspar
*Solid Section, elset=PSOLID_410, material=quartz
*End Part
**  
**
** ASSEMBLY
**
*Assembly, name=Assembly
**  
*Instance, name=PART-1-1, part=PART-1
*End Instance
**  
*Elset, elset=ALL_3DSOLID, instance=PART-1-1, generate
 51017,  81633,      1
*Elset, elset=ALL_MASSIVE_ELEMENTS, instance=PART-1-1, generate
 23535,  81633,      1
*Nset, nset=boundary, instance=PART-1-1
    40,    43,    60,    61,    62,    63,    65,    66,    69,    74,    75,    78,    79,    80,    81,    82
    83,    84,    85,    89,    90,    94,    95,    96,    97,    98,    99,   100,   107,   113,   114,   115
   118,   119,   120,   121,   122,   123,   124,   151,   154,   155,   156,   157,   166,   210,   212,   213
   215,   216,   217,   225,   228,   229,   230,   231,   232,   233,   234,   235,   243,   244,   245,   249
   250,   257,   260,   261,   269,   270,   271,   272,   273,   388,   389,   391,   394,   402,   403,   404
   433,   443,   445,   447,   448,   449,   450,   451,   454,   455,   456,   457,   458,   459,   460,   461
   462,   465,   472,   475,   476,   479,   480,   481,   482,   484,   488,   491,   499,   500,   507,   508
   509,   510,   511,   512,   513,   514,   515,   516,   517,   520,   521,   522,   525,   526,   527,   528
   529,   530,   531,   536,   537,   538,   542,   543,   557,   558,   559,   560,   561,   562,   565,   573
   574,   575,   578,   579,   580,   601,   610,   611,   612,   614,   616,   617,   618,   623,   625,   626
   628,   629,   630,   631,   632,   634,   636,   637,   638,   639,   640,   641,   649,   650,   651,   652
   653,   654,   655,   656,   657,   659,   660,   661,   662,   779,   780,   783,   784,   788,   789,   801
   802,   805,   806,   810,   811,   812,   813,   814,   815,   816,   817,   818,   856,   857,   865,   866
   867,   871,   872,   906,   907,   908,   909,   910,   922,   924,   927,   929,   933,   934,   935,   936
   939,   942,   943,   944,   945,   947,   948,   949,   950,   951,   952,   957,   964,   965,   966,   969
   970,   971,   972,  1478,  1482,  1483,  1484,  1485,  1486,  1489,  1490,  1499,  1530,  1531,  1533,  1534
  1535,  1536,  1537,  1538,  1657,  1658,  1660,  1661,  1663,  1668,  1675,  1676,  1685,  1686,  1687,  1688
  1689,  1690,  1691,  1692,  1747,  1748,  1749,  1750,  1751,  1754,  1757,  1758,  1759,  1760,  1765,  1766
  1769,  1770,  1773,  1774,  1778,  1781,  1782,  1789,  1790,  1791,  1792,  1793,  1794,  1809,  1810,  1811
  1812,  1816,  1825,  1826,  1827,  1828,  1833,  1834,  1840,  1841,  1842,  1843,  1847,  1848,  1904,  1910
** ... 170 like lines cut
*End Assembly
** 
** MATERIALS
** 
*Material, name=feldspar
*Conductivity
 1.46,
*Density
2703.,
*Elastic
 8.702e+10, 0.29
*Expansion
  3.6e-06,    25.
  4.6e-06, 119.85
 5.19e-06, 219.85
 5.59e-06, 319.85
 5.89e-06, 419.85
 6.14e-06, 519.85
 6.37e-06, 619.85
 6.58e-06, 719.85
 6.78e-06, 819.85
 6.97e-06, 919.85
 7.12e-06,  1000.
*Specific Heat
 860., 50.
 945.,200.
1054.,400.
1090.,500.
*Material, name=quartz
*Conductivity
  8.,  1.
 6.5,100.
 5.5,200.
 4.5,300.
  4.,400.
 3.8,500.
 3.7,550.
 3.5,575.
 3.5,580.
 3.8,600.
 3.9,700.
  4.,800.
*Density
2650.,
*Elastic
    1e+11,  0.09,    0.
  9.5e+10, 0.085,  100.
    9e+10,  0.08,  200.
  8.5e+10,  0.05,  300.
  8.3e+10,    0.,  400.
    8e+10, -0.05,  500.
  7.5e+10,  -0.1,  550.
    6e+10,  -0.2,  575.
    8e+10,  -0.3,  580.
  9.5e+10,   0.2,  600.
    1e+11,  0.25,  700.
 1.05e+11,  0.25,  800.
*Expansion
    1e-05,  1.
 1.25e-05,100.
 1.26e-05,200.
 1.27e-05,300.
 1.28e-05,400.
  1.5e-05,500.
 1.75e-05,550.
    2e-05,575.
  2.5e-05,580.
 2.25e-05,600.
  2.1e-05,700.
    2e-05,800.
*Specific Heat
 700.,  1.
 810.,100.
 910.,200.
1005.,300.
1100.,400.
1190.,500.
1250.,550.
1400.,575.
1050.,580.
1070.,600.
1080.,700.
1090.,800.
*Step, name=Step-1, nlgeom=NO
*Coupled Temperature-displacement, creep=none, deltmx=30.
1., 1., 0.01, 1.
** 
*Dflux
 PART-1-1.PSOLID_2, BF, 100000.
 PART-1-1.PSOLID_4, BF, 100000.
 PART-1-1.PSOLID_5, BF, 100000.
 PART-1-1.PSOLID_8, BF, 100000.
 PART-1-1.PSOLID_9, BF, 100000.
 PART-1-1.PSOLID_10, BF, 100000.
 PART-1-1.PSOLID_11, BF, 100000.
 PART-1-1.PSOLID_13, BF, 100000.
 PART-1-1.PSOLID_14, BF, 100000.
 PART-1-1.PSOLID_15, BF, 100000.
 PART-1-1.PSOLID_16, BF, 100000.
 PART-1-1.PSOLID_17, BF, 100000.
 PART-1-1.PSOLID_18, BF, 100000.
 PART-1-1.PSOLID_22, BF, 100000.
 PART-1-1.PSOLID_24, BF, 100000.
 PART-1-1.PSOLID_25, BF, 100000.
 PART-1-1.PSOLID_26, BF, 100000.
 PART-1-1.PSOLID_27, BF, 100000.
 PART-1-1.PSOLID_29, BF, 100000.
 PART-1-1.PSOLID_31, BF, 100000.
** ... 193 like lines cut
** BOUNDARY CONDITIONS
** 
** Name: BC-1 Type: Symmetry/Antisymmetry/Encastre
*Boundary
boundary, ENCASTRE
** 
** OUTPUT REQUESTS
** 
*Restart, write, frequency=0
** 
** FIELD OUTPUT: F-Output-1
** 
*Output, field, variable=PRESELECT
** 
** HISTORY OUTPUT: H-Output-1
** 
*Output, history, variable=PRESELECT
*End Step
