*Heading
 **C:\peter_abaqus\Summer-Research-Project\meep\gen_geo\gmsh_out\simple_plane.inp
 **SI unit
 **simple plane simulation

*part,name=part-1
*NODE
1, 0, 0, 0
2, 1, 0, 0
3, 1, 1, 0
4, 0, 1, 0
5, 0.125, 0, 0
6, 0.25, 0, 0
7, 0.375, 0, 0
8, 0.5, 0, 0
9, 0.625, 0, 0
10, 0.75, 0, 0
11, 0.875, 0, 0
12, 1, 0.125, 0
13, 1, 0.25, 0
14, 1, 0.375, 0
15, 1, 0.5, 0
16, 1, 0.625, 0
17, 1, 0.75, 0
18, 1, 0.875, 0
19, 0.875, 1, 0
20, 0.75, 1, 0
** ... 78 like lines cut
******* E L E M E N T S *************

*ELEMENT, type=CPS3, ELSET=Surface1
37, 68, 79, 38
38, 38, 72, 68
39, 35, 69, 62
40, 40, 63, 59
41, 62, 70, 35
42, 40, 86, 63
43, 15, 71, 14
44, 41, 67, 65
45, 37, 76, 67
46, 65, 88, 41
47, 35, 71, 15
48, 14, 71, 38
49, 36, 65, 64
50, 36, 64, 63
51, 49, 78, 66
52, 67, 76, 66
53, 42, 79, 68
54, 70, 71, 35
55, 66, 78, 64
56, 66, 76, 49
** ... 142 like lines cut

*Nset, nset=Set-1, generate
   1,  98,    1
*Elset, elset=Set-1, generate
   37,  198,    1
** Section: Section-1
*Solid Section, elset=Set-1, material=steel
,
*End Part
**  
**
** ASSEMBLY
**
*Assembly, name=Assembly
**  
*Instance, name=Part-1-1, part=Part-1
*End Instance
**  
*Nset, nset=Set-1, instance=Part-1-1, generate
 20,  21,    1
*Elset, elset=Set-1, instance=Part-1-1, generate
  99,  100,    1
*Elset, elset=_Surf-1_S1, internal, instance=Part-1-1, generate
  41,  50,   1
*Surface, type=ELEMENT, name=Surf-1
_Surf-1_S1, S1
*End Assembly
** 
** MATERIALS
** 
*Material, name=steel
*Elastic
 1e+07, 0.3
** ----------------------------------------------------------------
** 
** STEP: Step-1
** 
*Step, name=Step-1, nlgeom=NO
first_step
*Static
1., 1., 1e-05, 1.
** 
** BOUNDARY CONDITIONS
** 
** Name: BC-1 Type: Symmetry/Antisymmetry/Encastre
*Boundary
Set-1, ENCASTRE
** 
** LOADS
** 
** Name: Load-1   Type: Pressure
*Dsload
Surf-1, P, 10.
** 
** OUTPUT REQUESTS
** 

*Restart, write, frequency=0
** 
** FIELD OUTPUT: F-Output-1
** 
*Output, field, variable=PRESELECT
** 
** HISTORY OUTPUT: H-Output-1
** 
*Output, history, variable=PRESELECT
*End Step
